Circuit: * /Users/asphyx/Desktop/ltspice_stuff/Hybrid 2.asc

Direct Newton iteration failed to find .op point.  (Use ".option noopiter" to skip.)
Starting Gmin stepping
Increasing initial diagonal Gmin to 100
Gmin = 100
vernier = 0.5
vernier = 0.25
vernier = 0.125
Gmin = 48.1882
vernier = 0.0625
vernier = 0.03125
vernier = 0.015625
vernier = 0.0078125
Gmin = 46.6369
vernier = 0.00390625
vernier = 0.00195312
vernier = 0.000976562
Gmin = 46.5459
vernier = 0.000488281
Gmin = 0
Gmin stepping failed

Starting source stepping with srcstepmethod=0
Source Step = 3.0303%
Source Step = 33.3333%
Source Step = 45.0758%
Source Step = 45.2829%
Source Step = 45.3125%
Source Step = 45.3421%
Source Step = 45.3717%
Source Step = 45.4013%
Source Step = 45.4309%
Source Step = 45.4605%
Source Step = 45.4901%
vernier = 0.00146484
Source Step = 45.533%
Source Step = 45.5774%
Source Step = 45.6217%
Source Step = 45.6661%
Source Step = 45.7105%
vernier = 0.00219727
Source Step = 45.7727%
Source Step = 45.8393%
Source Step = 45.9058%
Source Step = 45.9724%
Source Step = 46.039%
vernier = 0.0032959
Source Step = 46.1289%
Source Step = 46.2288%
Source Step = 46.3286%
Source Step = 46.4285%
Source Step = 46.5284%
vernier = 0.00494385
Source Step = 46.6582%
Source Step = 46.808%
Source Step = 46.9579%
Source Step = 47.1077%
Source Step = 47.2575%
vernier = 0.00741577
Source Step = 47.4448%
Source Step = 47.6695%
Source Step = 47.8942%
Source Step = 48.1189%
Source Step = 48.3436%
vernier = 0.0111237
Source Step = 48.6133%
Source Step = 48.9504%
Source Step = 49.0515%
Source Step = 49.1358%
Source Step = 49.22%
Source Step = 49.3043%
Source Step = 49.3886%
vernier = 0.00417137
Source Step = 49.4897%
Source Step = 49.6161%
Source Step = 49.7425%
Source Step = 49.8689%
Source Step = 49.9953%
vernier = 0.00625706
Source Step = 50.1407%
Source Step = 50.3303%
vernier = 0.00156426
Source Step = 50.3587%
Source Step = 50.4061%
Source Step = 50.4535%
Source Step = 50.501%
Source Step = 50.5484%
vernier = 0.0023464
Source Step = 50.6123%
Source Step = 50.6834%
Source Step = 50.7546%
Source Step = 50.8257%
Source Step = 50.8968%
vernier = 0.00351959
Source Step = 50.9892%
Source Step = 51.0958%
Source Step = 51.2025%
Source Step = 51.3092%
Source Step = 51.4158%
vernier = 0.00527939
Source Step = 51.5491%
Source Step = 51.7091%
Source Step = 51.8691%
Source Step = 52.0291%
Source Step = 52.1891%
vernier = 0.00791909
Source Step = 52.381%
Source Step = 52.621%
Source Step = 52.861%
Source Step = 53.1009%
Source Step = 53.3409%
vernier = 0.0118786
Source Step = 53.6169%
Source Step = 53.9768%
Source Step = 54.3368%
Source Step = 54.6968%
Source Step = 55.0567%
vernier = 0.0178179
Source Step = 55.4527%
Source Step = 55.8981%
vernier = 0.00111362
Source Step = 55.9184%
Starting source stepping with srcstepmethod=1
Source Step = 3.0303%
Source Step = 5.35038%
Source stepping failed

Pseudo Transient failed in finding the operating point.
Trouble finding operating point....skipping operating point for Transient analysis.

Date: Sat Feb  4 22:41:37 2017
Total elapsed time: 40.722 seconds.

tnom = 27
temp = 27
method = modified trap
totiter = 1983493
traniter = 0
tranpoints = 1
accept = 1
rejected = 54616
matrix size = 75
fillins = 155
solver = Normal
Matrix Compiler1: 14210 object code size  3.8/1.9/[1.4]
Matrix Compiler2:     664 opcodes

