Circuit: * /Users/asphyx/Desktop/ltspice_stuff/Hybrid 2.asc

Direct Newton iteration for .op point succeeded.
Ignoring empty pin current: Ix(u1:1)
Ignoring empty pin current: Ix(u1:2)
Ignoring empty pin current: Ix(u1:1)
Ignoring empty pin current: Ix(u1:2)



Date: Sat Feb  4 22:45:21 2017
Total elapsed time: 0.091 seconds.

tnom = 27
temp = 27
method = trap
totiter = 8
traniter = 0
tranpoints = 0
accept = 0
rejected = 0
matrix size = 54
fillins = 43
solver = Normal
Matrix Compiler1:     364 opcodes
Matrix Compiler2:     409 opcodes

